16

C              0.299712000000        -2.376563000000         0.301531000000
C              0.946138000000        -1.389750000000        -0.460936000000
C              0.372331000000        -0.124572000000        -0.618326000000
C             -0.859774000000         0.179973000000        -0.016500000000
C             -1.506939000000        -0.807173000000         0.746530000000
C             -0.933184000000        -2.072240000000         0.903902000000
C             -1.463378000000         1.520190000000        -0.185696000000
O             -2.568293000000         1.797916000000         0.352200000000
O             -0.818807000000         2.492807000000        -0.941546000000
C              0.910585000000        -3.714140000000         0.465447000000
O              0.334487000000        -4.602396000000         1.148391000000
O              2.130304000000        -4.009661000000        -0.132650000000
H              1.896846000000        -1.593593000000        -0.937440000000
H              0.895375000000         0.614527000000        -1.212135000000
H             -2.457749000000        -0.602866000000         1.222920000000
H             -1.455947000000        -2.811739000000         1.497695000000
